<?xml version="1.0" encoding="UTF-8"?>

<!-- generated on Sun 25 Feb 2018 05:40:53 PM +07 by Netedit Version 0.32.0
<?xml version="1.0" encoding="UTF-8"?>

<configuration xmlns:xsi="http://www.w3.org/2001/XMLSchema-instance" xsi:noNamespaceSchemaLocation="http://sumo.dlr.de/xsd/netconvertConfiguration.xsd">

    <input>
        <sumo-net-file value="map.net.xml"/>
    </input>

    <output>
        <output-file value="map.net.xml"/>
    </output>

    <processing>
        <no-turnarounds value="true"/>
        <offset.disable-normalization value="true"/>
        <lefthand value="false"/>
        <junctions.corner-detail value="0"/>
        <rectangular-lane-cut value="false"/>
        <walkingareas value="false"/>
    </processing>

</configuration>
-->

<net version="0.27" xmlns:xsi="http://www.w3.org/2001/XMLSchema-instance" xsi:noNamespaceSchemaLocation="http://sumo.dlr.de/xsd/net_file.xsd">

    <location netOffset="0.00,0.00" convBoundary="-100.00,-100.00,200.00,200.00" origBoundary="-10000000000.00,-10000000000.00,10000000000.00,10000000000.00" projParameter="!"/>

    <edge id=":3_0" function="internal">
        <lane id=":3_0_0" index="0" speed="13.89" length="5.00" shape="-4.95,108.05 -5.14,106.69 -5.72,105.72 -6.69,105.14 -8.05,104.95"/>
    </edge>
    <edge id=":3_1" function="internal">
        <lane id=":3_1_0" index="0" speed="13.89" length="16.10" shape="-4.95,108.05 -4.95,91.95"/>
        <lane id=":3_1_1" index="1" speed="13.89" length="16.10" shape="-1.65,108.05 -1.65,91.95"/>
    </edge>
    <edge id=":3_3" function="internal">
        <lane id=":3_3_0" index="0" speed="13.89" length="6.41" shape="-1.65,108.05 -1.04,103.81 0.05,101.98"/>
    </edge>
    <edge id=":3_16" function="internal">
        <lane id=":3_16_0" index="0" speed="13.89" length="9.23" shape="0.05,101.98 0.77,100.78 3.81,98.96 8.05,98.35"/>
    </edge>
    <edge id=":3_4" function="internal">
        <lane id=":3_4_0" index="0" speed="13.89" length="5.00" shape="8.05,104.95 6.69,105.14 5.72,105.72 5.14,106.69 4.95,108.05"/>
    </edge>
    <edge id=":3_5" function="internal">
        <lane id=":3_5_0" index="0" speed="13.89" length="16.10" shape="8.05,104.95 -8.05,104.95"/>
        <lane id=":3_5_1" index="1" speed="13.89" length="16.10" shape="8.05,101.65 -8.05,101.65"/>
    </edge>
    <edge id=":3_7" function="internal">
        <lane id=":3_7_0" index="0" speed="13.89" length="6.41" shape="8.05,101.65 3.81,101.04 1.98,99.95"/>
    </edge>
    <edge id=":3_17" function="internal">
        <lane id=":3_17_0" index="0" speed="13.89" length="9.23" shape="1.98,99.95 0.77,99.23 -1.04,96.19 -1.65,91.95"/>
    </edge>
    <edge id=":3_8" function="internal">
        <lane id=":3_8_0" index="0" speed="13.89" length="5.00" shape="4.95,91.95 5.14,93.31 5.72,94.28 6.69,94.86 8.05,95.05"/>
    </edge>
    <edge id=":3_9" function="internal">
        <lane id=":3_9_0" index="0" speed="13.89" length="16.10" shape="4.95,91.95 4.95,108.05"/>
        <lane id=":3_9_1" index="1" speed="13.89" length="16.10" shape="1.65,91.95 1.65,108.05"/>
    </edge>
    <edge id=":3_11" function="internal">
        <lane id=":3_11_0" index="0" speed="13.89" length="6.41" shape="1.65,91.95 1.04,96.19 -0.05,98.02"/>
    </edge>
    <edge id=":3_18" function="internal">
        <lane id=":3_18_0" index="0" speed="13.89" length="9.23" shape="-0.05,98.02 -0.77,99.23 -3.81,101.04 -8.05,101.65"/>
    </edge>
    <edge id=":3_12" function="internal">
        <lane id=":3_12_0" index="0" speed="13.89" length="5.00" shape="-8.05,95.05 -6.69,94.86 -5.72,94.28 -5.14,93.31 -4.95,91.95"/>
    </edge>
    <edge id=":3_13" function="internal">
        <lane id=":3_13_0" index="0" speed="13.89" length="16.10" shape="-8.05,95.05 8.05,95.05"/>
        <lane id=":3_13_1" index="1" speed="13.89" length="16.10" shape="-8.05,98.35 8.05,98.35"/>
    </edge>
    <edge id=":3_15" function="internal">
        <lane id=":3_15_0" index="0" speed="13.89" length="6.41" shape="-8.05,98.35 -3.81,98.96 -1.98,100.05"/>
    </edge>
    <edge id=":3_19" function="internal">
        <lane id=":3_19_0" index="0" speed="13.89" length="9.23" shape="-1.98,100.05 -0.77,100.77 1.04,103.81 1.65,108.05"/>
    </edge>
    <edge id=":4_0" function="internal">
        <lane id=":4_0_0" index="0" speed="13.89" length="5.00" shape="95.05,108.05 94.86,106.69 94.28,105.72 93.31,105.14 91.95,104.95"/>
    </edge>
    <edge id=":4_1" function="internal">
        <lane id=":4_1_0" index="0" speed="13.89" length="16.10" shape="95.05,108.05 95.05,91.95"/>
        <lane id=":4_1_1" index="1" speed="13.89" length="16.10" shape="98.35,108.05 98.35,91.95"/>
    </edge>
    <edge id=":4_3" function="internal">
        <lane id=":4_3_0" index="0" speed="13.89" length="6.41" shape="98.35,108.05 98.96,103.81 100.05,101.98"/>
    </edge>
    <edge id=":4_16" function="internal">
        <lane id=":4_16_0" index="0" speed="13.89" length="9.23" shape="100.05,101.98 100.77,100.78 103.81,98.96 108.05,98.35"/>
    </edge>
    <edge id=":4_4" function="internal">
        <lane id=":4_4_0" index="0" speed="13.89" length="5.00" shape="108.05,104.95 106.69,105.14 105.72,105.72 105.14,106.69 104.95,108.05"/>
    </edge>
    <edge id=":4_5" function="internal">
        <lane id=":4_5_0" index="0" speed="13.89" length="16.10" shape="108.05,104.95 91.95,104.95"/>
        <lane id=":4_5_1" index="1" speed="13.89" length="16.10" shape="108.05,101.65 91.95,101.65"/>
    </edge>
    <edge id=":4_7" function="internal">
        <lane id=":4_7_0" index="0" speed="13.89" length="6.41" shape="108.05,101.65 103.81,101.04 101.98,99.95"/>
    </edge>
    <edge id=":4_17" function="internal">
        <lane id=":4_17_0" index="0" speed="13.89" length="9.23" shape="101.98,99.95 100.78,99.23 98.96,96.19 98.35,91.95"/>
    </edge>
    <edge id=":4_8" function="internal">
        <lane id=":4_8_0" index="0" speed="13.89" length="5.00" shape="104.95,91.95 105.14,93.31 105.72,94.28 106.69,94.86 108.05,95.05"/>
    </edge>
    <edge id=":4_9" function="internal">
        <lane id=":4_9_0" index="0" speed="13.89" length="16.10" shape="104.95,91.95 104.95,108.05"/>
        <lane id=":4_9_1" index="1" speed="13.89" length="16.10" shape="101.65,91.95 101.65,108.05"/>
    </edge>
    <edge id=":4_11" function="internal">
        <lane id=":4_11_0" index="0" speed="13.89" length="6.41" shape="101.65,91.95 101.04,96.19 99.95,98.02"/>
    </edge>
    <edge id=":4_18" function="internal">
        <lane id=":4_18_0" index="0" speed="13.89" length="9.23" shape="99.95,98.02 99.23,99.22 96.19,101.04 91.95,101.65"/>
    </edge>
    <edge id=":4_12" function="internal">
        <lane id=":4_12_0" index="0" speed="13.89" length="5.00" shape="91.95,95.05 93.31,94.86 94.28,94.28 94.86,93.31 95.05,91.95"/>
    </edge>
    <edge id=":4_13" function="internal">
        <lane id=":4_13_0" index="0" speed="13.89" length="16.10" shape="91.95,95.05 108.05,95.05"/>
        <lane id=":4_13_1" index="1" speed="13.89" length="16.10" shape="91.95,98.35 108.05,98.35"/>
    </edge>
    <edge id=":4_15" function="internal">
        <lane id=":4_15_0" index="0" speed="13.89" length="6.41" shape="91.95,98.35 96.19,98.96 98.02,100.05"/>
    </edge>
    <edge id=":4_19" function="internal">
        <lane id=":4_19_0" index="0" speed="13.89" length="9.23" shape="98.02,100.05 99.23,100.77 101.04,103.81 101.65,108.05"/>
    </edge>
    <edge id=":7_0" function="internal">
        <lane id=":7_0_0" index="0" speed="13.89" length="5.00" shape="-4.95,8.05 -5.14,6.69 -5.72,5.72 -6.69,5.14 -8.05,4.95"/>
    </edge>
    <edge id=":7_1" function="internal">
        <lane id=":7_1_0" index="0" speed="13.89" length="16.10" shape="-4.95,8.05 -4.95,-8.05"/>
        <lane id=":7_1_1" index="1" speed="13.89" length="16.10" shape="-1.65,8.05 -1.65,-8.05"/>
    </edge>
    <edge id=":7_3" function="internal">
        <lane id=":7_3_0" index="0" speed="13.89" length="6.41" shape="-1.65,8.05 -1.04,3.81 0.05,1.98"/>
    </edge>
    <edge id=":7_16" function="internal">
        <lane id=":7_16_0" index="0" speed="13.89" length="9.23" shape="0.05,1.98 0.77,0.77 3.81,-1.04 8.05,-1.65"/>
    </edge>
    <edge id=":7_4" function="internal">
        <lane id=":7_4_0" index="0" speed="13.89" length="5.00" shape="8.05,4.95 6.69,5.14 5.72,5.72 5.14,6.69 4.95,8.05"/>
    </edge>
    <edge id=":7_5" function="internal">
        <lane id=":7_5_0" index="0" speed="13.89" length="16.10" shape="8.05,4.95 -8.05,4.95"/>
        <lane id=":7_5_1" index="1" speed="13.89" length="16.10" shape="8.05,1.65 -8.05,1.65"/>
    </edge>
    <edge id=":7_7" function="internal">
        <lane id=":7_7_0" index="0" speed="13.89" length="6.41" shape="8.05,1.65 3.81,1.04 1.98,-0.05"/>
    </edge>
    <edge id=":7_17" function="internal">
        <lane id=":7_17_0" index="0" speed="13.89" length="9.23" shape="1.98,-0.05 0.77,-0.77 -1.04,-3.81 -1.65,-8.05"/>
    </edge>
    <edge id=":7_8" function="internal">
        <lane id=":7_8_0" index="0" speed="13.89" length="5.00" shape="4.95,-8.05 5.14,-6.69 5.72,-5.72 6.69,-5.14 8.05,-4.95"/>
    </edge>
    <edge id=":7_9" function="internal">
        <lane id=":7_9_0" index="0" speed="13.89" length="16.10" shape="4.95,-8.05 4.95,8.05"/>
        <lane id=":7_9_1" index="1" speed="13.89" length="16.10" shape="1.65,-8.05 1.65,8.05"/>
    </edge>
    <edge id=":7_11" function="internal">
        <lane id=":7_11_0" index="0" speed="13.89" length="6.41" shape="1.65,-8.05 1.04,-3.81 -0.05,-1.98"/>
    </edge>
    <edge id=":7_18" function="internal">
        <lane id=":7_18_0" index="0" speed="13.89" length="9.23" shape="-0.05,-1.98 -0.77,-0.77 -3.81,1.04 -8.05,1.65"/>
    </edge>
    <edge id=":7_12" function="internal">
        <lane id=":7_12_0" index="0" speed="13.89" length="5.00" shape="-8.05,-4.95 -6.69,-5.14 -5.72,-5.72 -5.14,-6.69 -4.95,-8.05"/>
    </edge>
    <edge id=":7_13" function="internal">
        <lane id=":7_13_0" index="0" speed="13.89" length="16.10" shape="-8.05,-4.95 8.05,-4.95"/>
        <lane id=":7_13_1" index="1" speed="13.89" length="16.10" shape="-8.05,-1.65 8.05,-1.65"/>
    </edge>
    <edge id=":7_15" function="internal">
        <lane id=":7_15_0" index="0" speed="13.89" length="6.41" shape="-8.05,-1.65 -3.81,-1.04 -1.98,0.05"/>
    </edge>
    <edge id=":7_19" function="internal">
        <lane id=":7_19_0" index="0" speed="13.89" length="9.23" shape="-1.98,0.05 -0.77,0.77 1.04,3.81 1.65,8.05"/>
    </edge>
    <edge id=":8_0" function="internal">
        <lane id=":8_0_0" index="0" speed="13.89" length="5.00" shape="95.05,8.05 94.86,6.69 94.28,5.72 93.31,5.14 91.95,4.95"/>
    </edge>
    <edge id=":8_1" function="internal">
        <lane id=":8_1_0" index="0" speed="13.89" length="16.10" shape="95.05,8.05 95.05,-8.05"/>
        <lane id=":8_1_1" index="1" speed="13.89" length="16.10" shape="98.35,8.05 98.35,-8.05"/>
    </edge>
    <edge id=":8_3" function="internal">
        <lane id=":8_3_0" index="0" speed="13.89" length="6.41" shape="98.35,8.05 98.96,3.81 100.05,1.98"/>
    </edge>
    <edge id=":8_16" function="internal">
        <lane id=":8_16_0" index="0" speed="13.89" length="9.23" shape="100.05,1.98 100.77,0.77 103.81,-1.04 108.05,-1.65"/>
    </edge>
    <edge id=":8_4" function="internal">
        <lane id=":8_4_0" index="0" speed="13.89" length="5.00" shape="108.05,4.95 106.69,5.14 105.72,5.72 105.14,6.69 104.95,8.05"/>
    </edge>
    <edge id=":8_5" function="internal">
        <lane id=":8_5_0" index="0" speed="13.89" length="16.10" shape="108.05,4.95 91.95,4.95"/>
        <lane id=":8_5_1" index="1" speed="13.89" length="16.10" shape="108.05,1.65 91.95,1.65"/>
    </edge>
    <edge id=":8_7" function="internal">
        <lane id=":8_7_0" index="0" speed="13.89" length="6.41" shape="108.05,1.65 103.81,1.04 101.98,-0.05"/>
    </edge>
    <edge id=":8_17" function="internal">
        <lane id=":8_17_0" index="0" speed="13.89" length="9.23" shape="101.98,-0.05 100.78,-0.77 98.96,-3.81 98.35,-8.05"/>
    </edge>
    <edge id=":8_8" function="internal">
        <lane id=":8_8_0" index="0" speed="13.89" length="5.00" shape="104.95,-8.05 105.14,-6.69 105.72,-5.72 106.69,-5.14 108.05,-4.95"/>
    </edge>
    <edge id=":8_9" function="internal">
        <lane id=":8_9_0" index="0" speed="13.89" length="16.10" shape="104.95,-8.05 104.95,8.05"/>
        <lane id=":8_9_1" index="1" speed="13.89" length="16.10" shape="101.65,-8.05 101.65,8.05"/>
    </edge>
    <edge id=":8_11" function="internal">
        <lane id=":8_11_0" index="0" speed="13.89" length="6.41" shape="101.65,-8.05 101.04,-3.81 99.95,-1.98"/>
    </edge>
    <edge id=":8_18" function="internal">
        <lane id=":8_18_0" index="0" speed="13.89" length="9.23" shape="99.95,-1.98 99.23,-0.77 96.19,1.04 91.95,1.65"/>
    </edge>
    <edge id=":8_12" function="internal">
        <lane id=":8_12_0" index="0" speed="13.89" length="5.00" shape="91.95,-4.95 93.31,-5.14 94.28,-5.72 94.86,-6.69 95.05,-8.05"/>
    </edge>
    <edge id=":8_13" function="internal">
        <lane id=":8_13_0" index="0" speed="13.89" length="16.10" shape="91.95,-4.95 108.05,-4.95"/>
        <lane id=":8_13_1" index="1" speed="13.89" length="16.10" shape="91.95,-1.65 108.05,-1.65"/>
    </edge>
    <edge id=":8_15" function="internal">
        <lane id=":8_15_0" index="0" speed="13.89" length="6.41" shape="91.95,-1.65 96.19,-1.04 98.02,0.05"/>
    </edge>
    <edge id=":8_19" function="internal">
        <lane id=":8_19_0" index="0" speed="13.89" length="9.23" shape="98.02,0.05 99.22,0.77 101.04,3.81 101.65,8.05"/>
    </edge>

    <edge id="-gneE0" from="3" to="2" priority="1">
        <lane id="-gneE0_0" index="0" speed="13.89" length="91.95" shape="-8.05,104.95 -100.00,104.95"/>
        <lane id="-gneE0_1" index="1" speed="13.89" length="91.95" shape="-8.05,101.65 -100.00,101.65"/>
    </edge>
    <edge id="-gneE1" from="4" to="3" priority="1">
        <lane id="-gneE1_0" index="0" speed="13.89" length="83.90" shape="91.95,104.95 8.05,104.95"/>
        <lane id="-gneE1_1" index="1" speed="13.89" length="83.90" shape="91.95,101.65 8.05,101.65"/>
    </edge>
    <edge id="-gneE10" from="8" to="4" priority="1">
        <lane id="-gneE10_0" index="0" speed="13.89" length="83.90" shape="104.95,8.05 104.95,91.95"/>
        <lane id="-gneE10_1" index="1" speed="13.89" length="83.90" shape="101.65,8.05 101.65,91.95"/>
    </edge>
    <edge id="-gneE11" from="11" to="8" priority="1">
        <lane id="-gneE11_0" index="0" speed="13.89" length="91.95" shape="104.95,-100.00 104.95,-8.05"/>
        <lane id="-gneE11_1" index="1" speed="13.89" length="91.95" shape="101.65,-100.00 101.65,-8.05"/>
    </edge>
    <edge id="-gneE2" from="5" to="4" priority="1">
        <lane id="-gneE2_0" index="0" speed="13.89" length="91.95" shape="200.00,104.95 108.05,104.95"/>
        <lane id="-gneE2_1" index="1" speed="13.89" length="91.95" shape="200.00,101.65 108.05,101.65"/>
    </edge>
    <edge id="-gneE3" from="7" to="6" priority="1">
        <lane id="-gneE3_0" index="0" speed="13.89" length="91.95" shape="-8.05,4.95 -100.00,4.95"/>
        <lane id="-gneE3_1" index="1" speed="13.89" length="91.95" shape="-8.05,1.65 -100.00,1.65"/>
    </edge>
    <edge id="-gneE4" from="8" to="7" priority="1">
        <lane id="-gneE4_0" index="0" speed="13.89" length="83.90" shape="91.95,4.95 8.05,4.95"/>
        <lane id="-gneE4_1" index="1" speed="13.89" length="83.90" shape="91.95,1.65 8.05,1.65"/>
    </edge>
    <edge id="-gneE5" from="9" to="8" priority="1">
        <lane id="-gneE5_0" index="0" speed="13.89" length="91.95" shape="200.00,4.95 108.05,4.95"/>
        <lane id="-gneE5_1" index="1" speed="13.89" length="91.95" shape="200.00,1.65 108.05,1.65"/>
    </edge>
    <edge id="-gneE6" from="3" to="0" priority="1">
        <lane id="-gneE6_0" index="0" speed="13.89" length="91.95" shape="4.95,108.05 4.95,200.00"/>
        <lane id="-gneE6_1" index="1" speed="13.89" length="91.95" shape="1.65,108.05 1.65,200.00"/>
    </edge>
    <edge id="-gneE7" from="7" to="3" priority="1">
        <lane id="-gneE7_0" index="0" speed="13.89" length="83.90" shape="4.95,8.05 4.95,91.95"/>
        <lane id="-gneE7_1" index="1" speed="13.89" length="83.90" shape="1.65,8.05 1.65,91.95"/>
    </edge>
    <edge id="-gneE8" from="10" to="7" priority="1">
        <lane id="-gneE8_0" index="0" speed="13.89" length="91.95" shape="4.95,-100.00 4.95,-8.05"/>
        <lane id="-gneE8_1" index="1" speed="13.89" length="91.95" shape="1.65,-100.00 1.65,-8.05"/>
    </edge>
    <edge id="-gneE9" from="4" to="1" priority="1">
        <lane id="-gneE9_0" index="0" speed="13.89" length="91.95" shape="104.95,108.05 104.95,200.00"/>
        <lane id="-gneE9_1" index="1" speed="13.89" length="91.95" shape="101.65,108.05 101.65,200.00"/>
    </edge>
    <edge id="gneE0" from="2" to="3" priority="1">
        <lane id="gneE0_0" index="0" speed="13.89" length="91.95" shape="-100.00,95.05 -8.05,95.05"/>
        <lane id="gneE0_1" index="1" speed="13.89" length="91.95" shape="-100.00,98.35 -8.05,98.35"/>
    </edge>
    <edge id="gneE1" from="3" to="4" priority="1">
        <lane id="gneE1_0" index="0" speed="13.89" length="83.90" shape="8.05,95.05 91.95,95.05"/>
        <lane id="gneE1_1" index="1" speed="13.89" length="83.90" shape="8.05,98.35 91.95,98.35"/>
    </edge>
    <edge id="gneE10" from="4" to="8" priority="1">
        <lane id="gneE10_0" index="0" speed="13.89" length="83.90" shape="95.05,91.95 95.05,8.05"/>
        <lane id="gneE10_1" index="1" speed="13.89" length="83.90" shape="98.35,91.95 98.35,8.05"/>
    </edge>
    <edge id="gneE11" from="8" to="11" priority="1">
        <lane id="gneE11_0" index="0" speed="13.89" length="91.95" shape="95.05,-8.05 95.05,-100.00"/>
        <lane id="gneE11_1" index="1" speed="13.89" length="91.95" shape="98.35,-8.05 98.35,-100.00"/>
    </edge>
    <edge id="gneE2" from="4" to="5" priority="1">
        <lane id="gneE2_0" index="0" speed="13.89" length="91.95" shape="108.05,95.05 200.00,95.05"/>
        <lane id="gneE2_1" index="1" speed="13.89" length="91.95" shape="108.05,98.35 200.00,98.35"/>
    </edge>
    <edge id="gneE3" from="6" to="7" priority="1">
        <lane id="gneE3_0" index="0" speed="13.89" length="91.95" shape="-100.00,-4.95 -8.05,-4.95"/>
        <lane id="gneE3_1" index="1" speed="13.89" length="91.95" shape="-100.00,-1.65 -8.05,-1.65"/>
    </edge>
    <edge id="gneE4" from="7" to="8" priority="1">
        <lane id="gneE4_0" index="0" speed="13.89" length="83.90" shape="8.05,-4.95 91.95,-4.95"/>
        <lane id="gneE4_1" index="1" speed="13.89" length="83.90" shape="8.05,-1.65 91.95,-1.65"/>
    </edge>
    <edge id="gneE5" from="8" to="9" priority="1">
        <lane id="gneE5_0" index="0" speed="13.89" length="91.95" shape="108.05,-4.95 200.00,-4.95"/>
        <lane id="gneE5_1" index="1" speed="13.89" length="91.95" shape="108.05,-1.65 200.00,-1.65"/>
    </edge>
    <edge id="gneE6" from="0" to="3" priority="1">
        <lane id="gneE6_0" index="0" speed="13.89" length="91.95" shape="-4.95,200.00 -4.95,108.05"/>
        <lane id="gneE6_1" index="1" speed="13.89" length="91.95" shape="-1.65,200.00 -1.65,108.05"/>
    </edge>
    <edge id="gneE7" from="3" to="7" priority="1">
        <lane id="gneE7_0" index="0" speed="13.89" length="83.90" shape="-4.95,91.95 -4.95,8.05"/>
        <lane id="gneE7_1" index="1" speed="13.89" length="83.90" shape="-1.65,91.95 -1.65,8.05"/>
    </edge>
    <edge id="gneE8" from="7" to="10" priority="1">
        <lane id="gneE8_0" index="0" speed="13.89" length="91.95" shape="-4.95,-8.05 -4.95,-100.00"/>
        <lane id="gneE8_1" index="1" speed="13.89" length="91.95" shape="-1.65,-8.05 -1.65,-100.00"/>
    </edge>
    <edge id="gneE9" from="1" to="4" priority="1">
        <lane id="gneE9_0" index="0" speed="13.89" length="91.95" shape="95.05,200.00 95.05,108.05"/>
        <lane id="gneE9_1" index="1" speed="13.89" length="91.95" shape="98.35,200.00 98.35,108.05"/>
    </edge>

    <tlLogic id="3" type="static" programID="0" offset="0">
        <phase duration="33" state="GGGgrrrrGGGgrrrr"/>
        <phase duration="3" state="yyygrrrryyygrrrr"/>
        <phase duration="6" state="rrrGrrrrrrrGrrrr"/>
        <phase duration="3" state="rrryrrrrrrryrrrr"/>
        <phase duration="33" state="rrrrGGGgrrrrGGGg"/>
        <phase duration="3" state="rrrryyygrrrryyyg"/>
        <phase duration="6" state="rrrrrrrGrrrrrrrG"/>
        <phase duration="3" state="rrrrrrryrrrrrrry"/>
    </tlLogic>
    <tlLogic id="4" type="static" programID="0" offset="0">
        <phase duration="33" state="GGGgrrrrGGGgrrrr"/>
        <phase duration="3" state="yyygrrrryyygrrrr"/>
        <phase duration="6" state="rrrGrrrrrrrGrrrr"/>
        <phase duration="3" state="rrryrrrrrrryrrrr"/>
        <phase duration="33" state="rrrrGGGgrrrrGGGg"/>
        <phase duration="3" state="rrrryyygrrrryyyg"/>
        <phase duration="6" state="rrrrrrrGrrrrrrrG"/>
        <phase duration="3" state="rrrrrrryrrrrrrry"/>
    </tlLogic>
    <tlLogic id="7" type="static" programID="0" offset="0">
        <phase duration="33" state="GGGgrrrrGGGgrrrr"/>
        <phase duration="3" state="yyygrrrryyygrrrr"/>
        <phase duration="6" state="rrrGrrrrrrrGrrrr"/>
        <phase duration="3" state="rrryrrrrrrryrrrr"/>
        <phase duration="33" state="rrrrGGGgrrrrGGGg"/>
        <phase duration="3" state="rrrryyygrrrryyyg"/>
        <phase duration="6" state="rrrrrrrGrrrrrrrG"/>
        <phase duration="3" state="rrrrrrryrrrrrrry"/>
    </tlLogic>
    <tlLogic id="8" type="static" programID="0" offset="0">
        <phase duration="33" state="GGGgrrrrGGGgrrrr"/>
        <phase duration="3" state="yyygrrrryyygrrrr"/>
        <phase duration="6" state="rrrGrrrrrrrGrrrr"/>
        <phase duration="3" state="rrryrrrrrrryrrrr"/>
        <phase duration="33" state="rrrrGGGgrrrrGGGg"/>
        <phase duration="3" state="rrrryyygrrrryyyg"/>
        <phase duration="6" state="rrrrrrrGrrrrrrrG"/>
        <phase duration="3" state="rrrrrrryrrrrrrry"/>
    </tlLogic>

    <junction id="0" type="dead_end" x="0.00" y="200.00" incLanes="-gneE6_0 -gneE6_1" intLanes="" shape="-0.05,200.00 6.55,200.00 0.05,200.00"/>
    <junction id="1" type="dead_end" x="100.00" y="200.00" incLanes="-gneE9_0 -gneE9_1" intLanes="" shape="99.95,200.00 106.55,200.00 100.05,200.00"/>
    <junction id="10" type="dead_end" x="0.00" y="-100.00" incLanes="gneE8_0 gneE8_1" intLanes="" shape="0.05,-100.00 -6.55,-100.00 -0.05,-100.00"/>
    <junction id="11" type="dead_end" x="100.00" y="-100.00" incLanes="gneE11_0 gneE11_1" intLanes="" shape="100.05,-100.00 93.45,-100.00 99.95,-100.00"/>
    <junction id="2" type="dead_end" x="-100.00" y="100.00" incLanes="-gneE0_0 -gneE0_1" intLanes="" shape="-100.00,99.95 -100.00,106.55 -100.00,100.05"/>
    <junction id="3" type="traffic_light" x="0.00" y="100.00" incLanes="gneE6_0 gneE6_1 -gneE1_0 -gneE1_1 -gneE7_0 -gneE7_1 gneE0_0 gneE0_1" intLanes=":3_0_0 :3_1_0 :3_1_1 :3_16_0 :3_4_0 :3_5_0 :3_5_1 :3_17_0 :3_8_0 :3_9_0 :3_9_1 :3_18_0 :3_12_0 :3_13_0 :3_13_1 :3_19_0" shape="-6.55,108.05 6.55,108.05 8.05,106.55 8.05,93.45 6.55,91.95 -6.55,91.95 -8.05,93.45 -8.05,106.55">
        <request index="0" response="0000000000000000" foes="0000100001100000" cont="0"/>
        <request index="1" response="0000000000000000" foes="1111100011100000" cont="0"/>
        <request index="2" response="0000000000000000" foes="1111100011100000" cont="0"/>
        <request index="3" response="0000011100000000" foes="1110011111100000" cont="1"/>
        <request index="4" response="0000011000000000" foes="1000011000000000" cont="0"/>
        <request index="5" response="0000111000001111" foes="1000111000001111" cont="0"/>
        <request index="6" response="0000111000001111" foes="1000111000001111" cont="0"/>
        <request index="7" response="0111111000001110" foes="0111111000001110" cont="1"/>
        <request index="8" response="0000000000000000" foes="0110000000001000" cont="0"/>
        <request index="9" response="0000000000000000" foes="1110000011111000" cont="0"/>
        <request index="10" response="0000000000000000" foes="1110000011111000" cont="0"/>
        <request index="11" response="0000000000000111" foes="1110000011100111" cont="1"/>
        <request index="12" response="0000000000000110" foes="0000000010000110" cont="0"/>
        <request index="13" response="0000111100001110" foes="0000111110001110" cont="0"/>
        <request index="14" response="0000111100001110" foes="0000111110001110" cont="0"/>
        <request index="15" response="0000111001111110" foes="0000111001111110" cont="1"/>
    </junction>
    <junction id="4" type="traffic_light" x="100.00" y="100.00" incLanes="gneE9_0 gneE9_1 -gneE2_0 -gneE2_1 -gneE10_0 -gneE10_1 gneE1_0 gneE1_1" intLanes=":4_0_0 :4_1_0 :4_1_1 :4_16_0 :4_4_0 :4_5_0 :4_5_1 :4_17_0 :4_8_0 :4_9_0 :4_9_1 :4_18_0 :4_12_0 :4_13_0 :4_13_1 :4_19_0" shape="93.45,108.05 106.55,108.05 108.05,106.55 108.05,93.45 106.55,91.95 93.45,91.95 91.95,93.45 91.95,106.55">
        <request index="0" response="0000000000000000" foes="0000100001100000" cont="0"/>
        <request index="1" response="0000000000000000" foes="1111100011100000" cont="0"/>
        <request index="2" response="0000000000000000" foes="1111100011100000" cont="0"/>
        <request index="3" response="0000011100000000" foes="1110011111100000" cont="1"/>
        <request index="4" response="0000011000000000" foes="1000011000000000" cont="0"/>
        <request index="5" response="0000111000001111" foes="1000111000001111" cont="0"/>
        <request index="6" response="0000111000001111" foes="1000111000001111" cont="0"/>
        <request index="7" response="0111111000001110" foes="0111111000001110" cont="1"/>
        <request index="8" response="0000000000000000" foes="0110000000001000" cont="0"/>
        <request index="9" response="0000000000000000" foes="1110000011111000" cont="0"/>
        <request index="10" response="0000000000000000" foes="1110000011111000" cont="0"/>
        <request index="11" response="0000000000000111" foes="1110000011100111" cont="1"/>
        <request index="12" response="0000000000000110" foes="0000000010000110" cont="0"/>
        <request index="13" response="0000111100001110" foes="0000111110001110" cont="0"/>
        <request index="14" response="0000111100001110" foes="0000111110001110" cont="0"/>
        <request index="15" response="0000111001111110" foes="0000111001111110" cont="1"/>
    </junction>
    <junction id="5" type="dead_end" x="200.00" y="100.00" incLanes="gneE2_0 gneE2_1" intLanes="" shape="200.00,100.05 200.00,93.45 200.00,99.95"/>
    <junction id="6" type="dead_end" x="-100.00" y="0.00" incLanes="-gneE3_0 -gneE3_1" intLanes="" shape="-100.00,-0.05 -100.00,6.55 -100.00,0.05"/>
    <junction id="7" type="traffic_light" x="0.00" y="0.00" incLanes="gneE7_0 gneE7_1 -gneE4_0 -gneE4_1 -gneE8_0 -gneE8_1 gneE3_0 gneE3_1" intLanes=":7_0_0 :7_1_0 :7_1_1 :7_16_0 :7_4_0 :7_5_0 :7_5_1 :7_17_0 :7_8_0 :7_9_0 :7_9_1 :7_18_0 :7_12_0 :7_13_0 :7_13_1 :7_19_0" shape="-6.55,8.05 6.55,8.05 8.05,6.55 8.05,-6.55 6.55,-8.05 -6.55,-8.05 -8.05,-6.55 -8.05,6.55">
        <request index="0" response="0000000000000000" foes="0000100001100000" cont="0"/>
        <request index="1" response="0000000000000000" foes="1111100011100000" cont="0"/>
        <request index="2" response="0000000000000000" foes="1111100011100000" cont="0"/>
        <request index="3" response="0000011100000000" foes="1110011111100000" cont="1"/>
        <request index="4" response="0000011000000000" foes="1000011000000000" cont="0"/>
        <request index="5" response="0000111000001111" foes="1000111000001111" cont="0"/>
        <request index="6" response="0000111000001111" foes="1000111000001111" cont="0"/>
        <request index="7" response="0111111000001110" foes="0111111000001110" cont="1"/>
        <request index="8" response="0000000000000000" foes="0110000000001000" cont="0"/>
        <request index="9" response="0000000000000000" foes="1110000011111000" cont="0"/>
        <request index="10" response="0000000000000000" foes="1110000011111000" cont="0"/>
        <request index="11" response="0000000000000111" foes="1110000011100111" cont="1"/>
        <request index="12" response="0000000000000110" foes="0000000010000110" cont="0"/>
        <request index="13" response="0000111100001110" foes="0000111110001110" cont="0"/>
        <request index="14" response="0000111100001110" foes="0000111110001110" cont="0"/>
        <request index="15" response="0000111001111110" foes="0000111001111110" cont="1"/>
    </junction>
    <junction id="8" type="traffic_light" x="100.00" y="0.00" incLanes="gneE10_0 gneE10_1 -gneE5_0 -gneE5_1 -gneE11_0 -gneE11_1 gneE4_0 gneE4_1" intLanes=":8_0_0 :8_1_0 :8_1_1 :8_16_0 :8_4_0 :8_5_0 :8_5_1 :8_17_0 :8_8_0 :8_9_0 :8_9_1 :8_18_0 :8_12_0 :8_13_0 :8_13_1 :8_19_0" shape="93.45,8.05 106.55,8.05 108.05,6.55 108.05,-6.55 106.55,-8.05 93.45,-8.05 91.95,-6.55 91.95,6.55">
        <request index="0" response="0000000000000000" foes="0000100001100000" cont="0"/>
        <request index="1" response="0000000000000000" foes="1111100011100000" cont="0"/>
        <request index="2" response="0000000000000000" foes="1111100011100000" cont="0"/>
        <request index="3" response="0000011100000000" foes="1110011111100000" cont="1"/>
        <request index="4" response="0000011000000000" foes="1000011000000000" cont="0"/>
        <request index="5" response="0000111000001111" foes="1000111000001111" cont="0"/>
        <request index="6" response="0000111000001111" foes="1000111000001111" cont="0"/>
        <request index="7" response="0111111000001110" foes="0111111000001110" cont="1"/>
        <request index="8" response="0000000000000000" foes="0110000000001000" cont="0"/>
        <request index="9" response="0000000000000000" foes="1110000011111000" cont="0"/>
        <request index="10" response="0000000000000000" foes="1110000011111000" cont="0"/>