<?xml version="1.0" encoding="UTF-8"?>

<!-- generated on Sun 28 Jan 2018 01:45:53 AM PST by Netedit Version 0.32.0
<?xml version="1.0" encoding="UTF-8"?>

<configuration xmlns:xsi="http://www.w3.org/2001/XMLSchema-instance" xsi:noNamespaceSchemaLocation="http://sumo.dlr.de/xsd/netconvertConfiguration.xsd">

    <input>
        <sumo-net-file value="1intersection.net.xml"/>
    </input>

    <output>
        <output-file value="1intersection.net.xml"/>
    </output>

    <tls_building>
        <tls.green.time value="15"/>
    </tls_building>

    <processing>
        <no-turnarounds value="true"/>
        <offset.disable-normalization value="true"/>
        <lefthand value="false"/>
        <junctions.corner-detail value="0"/>
        <rectangular-lane-cut value="false"/>
        <walkingareas value="false"/>
    </processing>

</configuration>
-->

<net version="0.27" xmlns:xsi="http://www.w3.org/2001/XMLSchema-instance" xsi:noNamespaceSchemaLocation="http://sumo.dlr.de/xsd/net_file.xsd">

    <location netOffset="0.00,0.00" convBoundary="-100.00,-100.00,100.00,100.00" origBoundary="-10000000000.00,-10000000000.00,10000000000.00,10000000000.00" projParameter="!"/>

    <edge id=":gneJ0_0" function="internal">
        <lane id=":gneJ0_0_0" index="0" speed="13.89" length="6.60" shape="4.95,100.00 -1.65,100.00"/>
    </edge>
    <edge id=":gneJ1_0" function="internal">
        <lane id=":gneJ1_0_0" index="0" speed="13.89" length="5.00" shape="-4.95,8.05 -5.14,6.69 -5.72,5.72 -6.69,5.14 -8.05,4.95"/>
    </edge>
    <edge id=":gneJ1_1" function="internal">
        <lane id=":gneJ1_1_0" index="0" speed="13.89" length="16.10" shape="-4.95,8.05 -4.95,-8.05"/>
        <lane id=":gneJ1_1_1" index="1" speed="13.89" length="16.10" shape="-1.65,8.05 -1.65,-8.05"/>
    </edge>
    <edge id=":gneJ1_3" function="internal">
        <lane id=":gneJ1_3_0" index="0" speed="13.89" length="6.41" shape="-1.65,8.05 -1.04,3.81 0.05,1.98"/>
    </edge>
    <edge id=":gneJ1_16" function="internal">
        <lane id=":gneJ1_16_0" index="0" speed="13.89" length="9.23" shape="0.05,1.98 0.77,0.77 3.81,-1.04 8.05,-1.65"/>
    </edge>
    <edge id=":gneJ1_4" function="internal">
        <lane id=":gneJ1_4_0" index="0" speed="13.89" length="5.00" shape="8.05,4.95 6.69,5.14 5.72,5.72 5.14,6.69 4.95,8.05"/>
    </edge>
    <edge id=":gneJ1_5" function="internal">
        <lane id=":gneJ1_5_0" index="0" speed="13.89" length="16.10" shape="8.05,4.95 -8.05,4.95"/>
        <lane id=":gneJ1_5_1" index="1" speed="13.89" length="16.10" shape="8.05,1.65 -8.05,1.65"/>
    </edge>
    <edge id=":gneJ1_7" function="internal">
        <lane id=":gneJ1_7_0" index="0" speed="13.89" length="6.41" shape="8.05,1.65 3.81,1.04 1.98,-0.05"/>
    </edge>
    <edge id=":gneJ1_17" function="internal">
        <lane id=":gneJ1_17_0" index="0" speed="13.89" length="9.23" shape="1.98,-0.05 0.77,-0.77 -1.04,-3.81 -1.65,-8.05"/>
    </edge>
    <edge id=":gneJ1_8" function="internal">
        <lane id=":gneJ1_8_0" index="0" speed="13.89" length="5.00" shape="4.95,-8.05 5.14,-6.69 5.72,-5.72 6.69,-5.14 8.05,-4.95"/>
    </edge>
    <edge id=":gneJ1_9" function="internal">
        <lane id=":gneJ1_9_0" index="0" speed="13.89" length="16.10" shape="4.95,-8.05 4.95,8.05"/>
        <lane id=":gneJ1_9_1" index="1" speed="13.89" length="16.10" shape="1.65,-8.05 1.65,8.05"/>
    </edge>
    <edge id=":gneJ1_11" function="internal">
        <lane id=":gneJ1_11_0" index="0" speed="13.89" length="6.41" shape="1.65,-8.05 1.04,-3.81 -0.05,-1.98"/>
    </edge>
    <edge id=":gneJ1_18" function="internal">
        <lane id=":gneJ1_18_0" index="0" speed="13.89" length="9.23" shape="-0.05,-1.98 -0.77,-0.77 -3.81,1.04 -8.05,1.65"/>
    </edge>
    <edge id=":gneJ1_12" function="internal">
        <lane id=":gneJ1_12_0" index="0" speed="13.89" length="5.00" shape="-8.05,-4.95 -6.69,-5.14 -5.72,-5.72 -5.14,-6.69 -4.95,-8.05"/>
    </edge>
    <edge id=":gneJ1_13" function="internal">
        <lane id=":gneJ1_13_0" index="0" speed="13.89" length="16.10" shape="-8.05,-4.95 8.05,-4.95"/>
        <lane id=":gneJ1_13_1" index="1" speed="13.89" length="16.10" shape="-8.05,-1.65 8.05,-1.65"/>
    </edge>
    <edge id=":gneJ1_15" function="internal">
        <lane id=":gneJ1_15_0" index="0" speed="13.89" length="6.41" shape="-8.05,-1.65 -3.81,-1.04 -1.98,0.05"/>
    </edge>
    <edge id=":gneJ1_19" function="internal">
        <lane id=":gneJ1_19_0" index="0" speed="13.89" length="9.23" shape="-1.98,0.05 -0.77,0.77 1.04,3.81 1.65,8.05"/>
    </edge>

    <edge id="gneE0" from="gneJ0" to="gneJ1" priority="1">
        <lane id="gneE0_0" index="0" speed="13.89" length="91.95" shape="-4.95,100.00 -4.95,8.05"/>
        <lane id="gneE0_1" index="1" speed="13.89" length="91.95" shape="-1.65,100.00 -1.65,8.05"/>
    </edge>
    <edge id="gneE1" from="gneJ1" to="gneJ2" priority="1">
        <lane id="gneE1_0" index="0" speed="13.89" length="91.95" shape="8.05,-4.95 100.00,-4.95"/>
        <lane id="gneE1_1" index="1" speed="13.89" length="91.95" shape="8.05,-1.65 100.00,-1.65"/>
    </edge>
    <edge id="gneE2" from="gneJ2" to="gneJ1" priority="1">
        <lane id="gneE2_0" index="0" speed="13.89" length="91.95" shape="100.00,4.95 8.05,4.95"/>
        <lane id="gneE2_1" index="1" speed="13.89" length="91.95" shape="100.00,1.65 8.05,1.65"/>
    </edge>
    <edge id="gneE3" from="gneJ1" to="gneJ3" priority="1">
        <lane id="gneE3_0" index="0" speed="13.89" length="91.95" shape="-8.05,4.95 -100.00,4.95"/>
        <lane id="gneE3_1" index="1" speed="13.89" length="91.95" shape="-8.05,1.65 -100.00,1.65"/>
    </edge>
    <edge id="gneE4" from="gneJ3" to="gneJ1" priority="1">
        <lane id="gneE4_0" index="0" speed="13.89" length="91.95" shape="-100.00,-4.95 -8.05,-4.95"/>
        <lane id="gneE4_1" index="1" speed="13.89" length="91.95" shape="-100.00,-1.65 -8.05,-1.65"/>
    </edge>
    <edge id="gneE5" from="gneJ1" to="gneJ4" priority="1">
        <lane id="gneE5_0" index="0" speed="13.89" length="91.95" shape="-4.95,-8.05 -4.95,-100.00"/>
        <lane id="gneE5_1" index="1" speed="13.89" length="91.95" shape="-1.65,-8.05 -1.65,-100.00"/>
    </edge>
    <edge id="gneE6" from="gneJ4" to="gneJ1" priority="1">
        <lane id="gneE6_0" index="0" speed="13.89" length="91.95" shape="4.95,-100.00 4.95,-8.05"/>
        <lane id="gneE6_1" index="1" speed="13.89" length="91.95" shape="1.65,-100.00 1.65,-8.05"/>
    </edge>
    <edge id="gneE7" from="gneJ1" to="gneJ0" priority="1">
        <lane id="gneE7_0" index="0" speed="13.89" length="91.95" shape="4.95,8.05 4.95,100.00"/>
        <lane id="gneE7_1" index="1" speed="13.89" length="91.95" shape="1.65,8.05 1.65,100.00"/>
    </edge>
    <edge id="gneE8" from="gneJ0" to="gneJ5" priority="1">
        <lane id="gneE8_0" index="0" speed="13.89" length="100.00" shape="-1.65,100.00 -1.65,0.00"/>
    </edge>

    <tlLogic id="gneJ1" type="static" programID="0" offset="0">
        <phase duration="15" state="GGGgrrrrGGGgrrrr"/>
        <phase duration="3" state="yyygrrrryyygrrrr"/>
        <phase duration="6" state="rrrGrrrrrrrGrrrr"/>
        <phase duration="3" state="rrryrrrrrrryrrrr"/>
        <phase duration="15" state="rrrrGGGgrrrrGGGg"/>
        <phase duration="3" state="rrrryyygrrrryyyg"/>
        <phase duration="6" state="rrrrrrrGrrrrrrrG"/>
        <phase duration="3" state="rrrrrrryrrrrrrry"/>
    </tlLogic>

    <junction id="gneJ0" type="priority" x="0.00" y="100.00" incLanes="gneE7_0 gneE7_1" intLanes=":gneJ0_0_0" shape="6.55,100.00 -0.05,100.00 -3.25,100.00">
        <request index="0" response="0" foes="0" cont="0"/>
    </junction>
    <junction id="gneJ1" type="traffic_light" x="0.00" y="0.00" incLanes="gneE0_0 gneE0_1 gneE2_0 gneE2_1 gneE6_0 gneE6_1 gneE4_0 gneE4_1" intLanes=":gneJ1_0_0 :gneJ1_1_0 :gneJ1_1_1 :gneJ1_16_0 :gneJ1_4_0 :gneJ1_5_0 :gneJ1_5_1 :gneJ1_17_0 :gneJ1_8_0 :gneJ1_9_0 :gneJ1_9_1 :gneJ1_18_0 :gneJ1_12_0 :gneJ1_13_0 :gneJ1_13_1 :gneJ1_19_0" shape="-6.55,8.05 6.55,8.05 8.05,6.55 8.05,-6.55 6.55,-8.05 -6.55,-8.05 -8.05,-6.55 -8.05,6.55">
        <request index="0" response="0000000000000000" foes="0000100001100000" cont="0"/>
        <request index="1" response="0000000000000000" foes="1111100011100000" cont="0"/>
        <request index="2" response="0000000000000000" foes="1111100011100000" cont="0"/>
        <request index="3" response="0000011100000000" foes="1110011111100000" cont="1"/>
        <request index="4" response="0000011000000000" foes="1000011000000000" cont="0"/>
        <request index="5" response="0000111000001111" foes="1000111000001111" cont="0"/>
        <request index="6" response="0000111000001111" foes="1000111000001111" cont="0"/>
        <request index="7" response="0111111000001110" foes="0111111000001110" cont="1"/>
        <request index="8" response="0000000000000000" foes="0110000000001000" cont="0"/>
        <request index="9" response="0000000000000000" foes="1110000011111000" cont="0"/>
        <request index="10" response="0000000000000000" foes="1110000011111000" cont="0"/>
        <request index="11" response="0000000000000111" foes="1110000011100111" cont="1"/>
        <request index="12" response="0000000000000110" foes="0000000010000110" cont="0"/>
        <request index="13" response="0000111100001110" foes="0000111110001110" cont="0"/>
        <request index="14" response="0000111100001110" foes="0000111110001110" cont="0"/>
        <request index="15" response="0000111001111110" foes="0000111001111110" cont="1"/>
    </junction>
    <junction id="gneJ2" type="dead_end" x="100.00" y="0.00" incLanes="gneE1_0 gneE1_1" intLanes="" shape="100.00,0.05 100.00,-6.55 100.00,-0.05"/>
    <junction id="gneJ3" type="dead_end" x="-100.00" y="0.00" incLanes="gneE3_0 gneE3_1" intLanes="" shape="-100.00,-0.05 -100.00,6.55 -100.00,0.05"/>
    <junction id="gneJ4" type="dead_end" x="0.00" y="-100.00" incLanes="gneE5_0 gneE5_1" intLanes="" shape="0.05,-100.00 -6.55,-100.00 -0.05,-100.00"/>
    <junction id="gneJ5" type="dead_end" x="0.00" y="0.00" incLanes="gneE8_0" intLanes="" shape="-3.25,0.00 -0.05,0.00"/>

    <junction id=":gneJ1_16_0" type="internal" x="0.05" y="1.98" incLanes=":gneJ1_3_0 gneE6_0 gneE6_1" intLanes=":gneJ1_5_0 :gneJ1_5_1 :gneJ1_7_0 :gneJ1_8_0 :gneJ1_9_0 :gneJ1_9_1 :gneJ1_13_0 :gneJ1_13_1 :gneJ1_15_0"/>
    <junction id=":gneJ1_17_0" type="internal" x="1.98" y="-0.05" incLanes=":gneJ1_7_0 gneE4_0 gneE4_1" intLanes=":gneJ1_1_0 :gneJ1_1_1 :gneJ1_3_0 :gneJ1_9_0 :gneJ1_9_1 :gneJ1_11_0 :gneJ1_12_0 :gneJ1_13_0 :gneJ1_13_1"/>
    <junction id=":gneJ1_18_0" type="internal" x="-0.05" y="-1.98" incLanes=":gneJ1_11_0 gneE0_0 gneE0_1" intLanes=":gneJ1_0_0 :gneJ1_1_0 :gneJ1_1_1 :gneJ1_5_0 :gneJ1_5_1 :gneJ1_7_0 :gneJ1_13_0 :gneJ1_13_1 :gneJ1_15_0"/>
    <junction id=":gneJ1_19_0" type="internal" x="-1.98" y="0.05" incLanes=":gneJ1_15_0 gneE2_0 gneE2_1" intLanes=":gneJ1_1_0 :gneJ1_1_1 :gneJ1_3_0 :gneJ1_4_0 :gneJ1_5_0 :gneJ1_5_1 :gneJ1_9_0 :gneJ1_9_1 :gneJ1_11_0"/>

    <connection from="gneE0" to="gneE3" fromLane="0" toLane="0" via=":gneJ1_0_0" tl="gneJ1" linkIndex="0" dir="r" state="o"/>
    <connection from="gneE0" to="gneE5" fromLane="0" toLane="0" via=":gneJ1_1_0" tl="gneJ1" linkIndex="1" dir="s" state="o"/>
    <connection from="gneE0" to="gneE5" fromLane="1" toLane="1" via=":gneJ1_1_1" tl="gneJ1" linkIndex="2" dir="s" state="o"/>
    <connection from="gneE0" to="gneE1" fromLane="1" toLane="1" via=":gneJ1_3_0" tl="gneJ1" linkIndex="3" dir="l" state="o"/>
    <connection from="gneE2" to="gneE7" fromLane="0" toLane="0" via=":gneJ1_4_0" tl="gneJ1" linkIndex="4" dir="r" state="o"/>
    <connection from="gneE2" to="gneE3" fromLane="0" toLane="0" via=":gneJ1_5_0" tl="gneJ1" linkIndex="5" dir="s" state="o"/>
    <connection from="gneE2" to="gneE3" fromLane="1" toLane="1" via=":gneJ1_5_1" tl="gneJ1" linkIndex="6" dir="s" state="o"/>
    <connection from="gneE2" to="gneE5" fromLane="1" toLane="1" via=":gneJ1_7_0" tl="gneJ1" linkIndex="7" dir="l" state="o"/>
    <connection from="gneE4" to="gneE5" fromLane="0" toLane="0" via=":gneJ1_12_0" tl="gneJ1" linkIndex="12" dir="r" state="o"/>
    <connection from="gneE4" to="gneE1" fromLane="0" toLane="0" via=":gneJ1_13_0" tl="gneJ1" linkIndex="13" dir="s" state="o"/>
    <connection from="gneE4" to="gneE1" fromLane="1" toLane="1" via=":gneJ1_13_1" tl="gneJ1" linkIndex="14" dir="s" state="o"/>
    <connection from="gneE4" to="gneE7" fromLane="1" toLane="1" via=":gneJ1_15_0" tl="gneJ1" linkIndex="15" dir="l" state="o"/>
    <connection from="gneE6" to="gneE1" fromLane="0" toLane="0" via=":gneJ1_8_0" tl="gneJ1" linkIndex="8" dir="r" state="o"/>
    <connection from="gneE6" to="gneE7" fromLane="0" toLane="0" via=":gneJ1_9_0" tl="gneJ1" linkIndex="9" dir="s" state="o"/>
    <connection from="gneE6" to="gneE7" fromLane="1" toLane="1" via=":gneJ1_9_1" tl="gneJ1" linkIndex="10" dir="s" state="o"/>
    <connection from="gneE6" to="gneE3" fromLane="1" toLane="1" via=":gneJ1_11_0" tl="gneJ1" linkIndex="11" dir="l" state="o"/>
    <connection from="gneE7" to="gneE8" fromLane="0" toLane="0" via=":gneJ0_0_0" dir="l" state="M"/>

    <connection from=":gneJ0_0" to="gneE8" fromLane="0" toLane="0" dir="l" state="M"/>
    <connection from=":gneJ1_0" to="gneE3" fromLane="0" toLane="0" dir="r" state="M"/>
    <connection from=":gneJ1_1" to="gneE5" fromLane="0" toLane="0" dir="s" state="M"/>
    <connection from=":gneJ1_1" to="gneE5" fromLane="1" toLane="1" dir="s" state="M"/>
    <connection from=":gneJ1_3" to="gneE1" fromLane="0" toLane="1" via=":gneJ1_16_0" dir="l" state="m"/>
    <connection from=":gneJ1_16" to="gneE1" fromLane="0" toLane="1" dir="l" state="M"/>
    <connection from=":gneJ1_4" to="gneE7" fromLane="0" toLane="0" dir="r" state="M"/>
    <connection from=":gneJ1_5" to="gneE3" fromLane="0" toLane="0" dir="s" state="M"/>
    <connection from=":gneJ1_5" to="gneE3" fromLane="1" toLane="1" dir="s" state="M"/>
    <connection from=":gneJ1_7" to="gneE5" fromLane="0" toLane="1" via=":gneJ1_17_0" dir="l" state="m"/>
    <connection from=":gneJ1_17" to="gneE5" fromLane="0" toLane="1" dir="l" state="M"/>
    <connection from=":gneJ1_8" to="gneE1" fromLane="0" toLane="0" dir="r" state="M"/>
    <connection from=":gneJ1_9" to="gneE7" fromLane="0" toLane="0" dir="s" state="M"/>
    <connection from=":gneJ1_9" to="gneE7" fromLane="1" toLane="1" dir="s" state="M"/>
    <connection from=":gneJ1_11" to="gneE3" fromLane="0" toLane="1" via=":gneJ1_18_0" dir="l" state="m"/>
    <connection from=":gneJ1_18" to="gneE3" fromLane="0" toLane="1" dir="l" state="M"/>
    <connection from=":gneJ1_12" to="gneE5" fromLane="0" toLane="0" dir="r" state="M"/>
    <connection from=":gneJ1_13" to="gneE1" fromLane="0" toLane="0" dir="s" state="M"/>
    <connection from=":gneJ1_13" to="gneE1" fromLane="1" toLane="1" dir="s" state="M"/>
    <connection from=":gneJ1_15" to="gneE7" fromLane="0" toLane="1" via=":gneJ1_19_0" dir="l" state="m"/>
    <connection from=":gneJ1_19" to="gneE7" fromLane="0" toLane="1" dir="l" state="M"/>

</net>
